[Format] = 4.0
[Frequency] = 100000.0
[Precision] = 1e-09
[MinAngle] = 30
[DoSmartMesh] = 1
[Depth] = 18.9
[LengthUnits] = millimeters
[ProblemType] = planar
[Coordinates] = cartesian
[ACSolver] = 0
[PrevType] = 0
[PrevSoln] = ''
[Comment] = "Add comments here."
[PointProps] = 0
[BdryProps] = 0
[BlockProps] = 4
  <BeginBlock>
    <BlockName> = "name5"
    <Mu_x> = 1900.0
    <Mu_y> = 1900.0
    <H_c> = 0
    <H_cAngle> = 0
    <J_re> = 0
    <J_im> = 0
    <Sigma> = 2e-06
    <d_lam> = 0
    <Phi_h> = 0
    <Phi_hx> = 0
    <Phi_hy> = 0
    <LamType> = 0
    <LamFill> = 1
    <NStrands> = 0
    <WireD> = 0
    <BHPoints> = 0
  <EndBlock>
  <BeginBlock>
    <BlockName> = "Air"
    <Mu_x> = 1
    <Mu_y> = 1
    <H_c> = 0
    <H_cAngle> = 0
    <J_re> = 0
    <J_im> = 0
    <Sigma> = 0.0
    <d_lam> = 0
    <Phi_h> = 0
    <Phi_hx> = 0
    <Phi_hy> = 0
    <LamType> = 0
    <LamFill> = 1
    <NStrands> = 0
    <WireD> = 0
    <BHPoints> = 0
  <EndBlock>
  <BeginBlock>
    <BlockName> = "Copper_primary"
    <Mu_x> = 1
    <Mu_y> = 1
    <H_c> = 0
    <H_cAngle> = 0
    <J_re> = 0
    <J_im> = 0
    <Sigma> = 58.0
    <d_lam> = 0
    <Phi_h> = 0
    <Phi_hx> = 0
    <Phi_hy> = 0
    <LamType> = 3
    <LamFill> = 1
    <NStrands> = 1
    <WireD> = 1.3311963527822612
    <BHPoints> = 0
  <EndBlock>
  <BeginBlock>
    <BlockName> = "Copper_secondary"
    <Mu_x> = 1
    <Mu_y> = 1
    <H_c> = 0
    <H_cAngle> = 0
    <J_re> = 0
    <J_im> = 0
    <Sigma> = 58.0
    <d_lam> = 0
    <Phi_h> = 0
    <Phi_hx> = 0
    <Phi_hy> = 0
    <LamType> = 3
    <LamFill> = 1
    <NStrands> = 1
    <WireD> = 0.5319230405352435
    <BHPoints> = 0
  <EndBlock>
[CircuitProps] = 1
  <BeginCircuit>
    <CircuitName> = Primary
    <TotalAmps_re> = 0.09022137380655777
    <TotalAmps_im> = 0
    <CircuitType> = 1
  <EndCircuit>
[NumPoints] = 24
0	0	0	0
0	55.2	0	0
54.5	55.2	0	0
54.5	0	0	0
6.65	7.4	0	0
17.8	7.4	0	0
17.8	47.8	0	0
6.65	47.8	0	0
36.699999999999996	7.4	0	0
47.849999999999994	7.4	0	0
47.849999999999994	47.8	0	0
36.699999999999996	47.8	0	0
-81.75	-82.80000000000001	0	0
136.25	-82.80000000000001	0	0
136.25	138.0	0	0
-81.75	138.0	0	0
17.78	7.42	0	0
17.78	34.263999999999996	0	0
16.4478	34.263999999999996	0	0
16.4478	7.42	0	0
36.720000000000006	7.42	0	0
36.720000000000006	34.263999999999996	0	0
38.052200000000006	34.263999999999996	0	0
38.052200000000006	7.42	0	0
[NumSegments] = 24
0	1	-1	0	0	0
1	2	-1	0	0	0
2	3	-1	0	0	0
3	0	-1	0	0	0
4	5	-1	0	0	0
5	6	-1	0	0	0
6	7	-1	0	0	0
7	4	-1	0	0	0
8	9	-1	0	0	0
9	10	-1	0	0	0
10	11	-1	0	0	0
11	8	-1	0	0	0
12	13	-1	0	0	0
13	14	-1	0	0	0
14	15	-1	0	0	0
15	12	-1	0	0	0
16	17	-1	0	0	0
17	18	-1	0	0	0
18	19	-1	0	0	0
19	16	-1	0	0	0
20	21	-1	0	0	0
21	22	-1	0	0	0
22	23	-1	0	0	0
23	20	-1	0	0	0
[NumArcSegments] = 0
[NumHoles] = 0
[NumBlockLabels] = 6
27.25	41.400000000000006	1	-1	0	0	0	0	0
27.25	82.80000000000001	2	-1	0	0	0	0	0
17.1139	8.0861	3	-1	1	0	0	20	1
37.386100000000006	8.0861	3	-1	1	0	0	-20	1
17.79	7.41	2	-1	0	0	0	0	0
36.72	7.42	2	-1	0	0	0	0	0
