[Format] = 1
[Precision] = 1e-10
[MinAngle] = 30
[DoSmartMesh] = 1
[Depth] = 18.9
[LengthUnits] = millimeters
[ProblemType] = planar
[Coordinates] = cartesian
[Comment] = "Add comments here."
[PointProps] = 0
[BdryProps] = 0
[BlockProps] = 8
  <BeginBlock>
    <BlockName> = "name5"
    <ex> = 100000.0
    <ey> = 100000.0
    <qv> = 0
  <EndBlock>
  <BeginBlock>
    <BlockName> = "name1"
    <ex> = 0.0
    <ey> = 0.0
    <qv> = 0
  <EndBlock>
  <BeginBlock>
    <BlockName> = "name2"
    <ex> = 0.0
    <ey> = 0.0
    <qv> = 0
  <EndBlock>
  <BeginBlock>
    <BlockName> = "Primary_wire_insulation"
    <ex> = 0.0
    <ey> = 0.0
    <qv> = 0
  <EndBlock>
  <BeginBlock>
    <BlockName> = "Secondary_wire_insulation"
    <ex> = 0.0
    <ey> = 0.0
    <qv> = 0
  <EndBlock>
  <BeginBlock>
    <BlockName> = "Air"
    <ex> = 1
    <ey> = 1
    <qv> = 0
  <EndBlock>
  <BeginBlock>
    <BlockName> = "Copper_primary"
    <ex> = 1
    <ey> = 1
    <qv> = 0
  <EndBlock>
  <BeginBlock>
    <BlockName> = "Copper_secondary"
    <ex> = 1
    <ey> = 1
    <qv> = 0
  <EndBlock>
[ConductorProps] = 3
  <BeginConductor>
    <ConductorName> = Primary0
    <vc> = 0
    <qc> = 0
    <ConductorType> = 1
    <Vc> = 0.0
  <EndConductor>
  <BeginConductor>
    <ConductorName> = Primary61
    <vc> = 0
    <qc> = 0
    <ConductorType> = 1
    <Vc> = 479.77528089887636
  <EndConductor>
  <BeginConductor>
    <ConductorName> = Primary89
    <vc> = 0
    <qc> = 0
    <ConductorType> = 1
    <Vc> = 959.5505617977527
  <EndConductor>
[NumPoints] = 24
0	0	0	0	0
0	55.2	0	0	0
54.5	55.2	0	0	0
54.5	0	0	0	0
36.699999999999996	7.4	0	0	0
47.849999999999994	7.4	0	0	0
47.849999999999994	47.8	0	0	0
36.699999999999996	47.8	0	0	0
-81.75	-82.80000000000001	0	0	0
136.25	-82.80000000000001	0	0	0
136.25	138.0	0	0	0
-81.75	138.0	0	0	0
6.65	7.4	0	0	0
17.8	7.4	0	0	0
17.8	47.8	0	0	0
6.65	47.8	0	0	0
17.78	7.42	0	0	1
17.78	47.09433551403169	0	0	1
17.139601057147022	47.09433551403169	0	0	1
17.139601057147022	7.42	0	0	1
17.099601057147023	7.42	0	0	2
17.099601057147023	25.6311703998834	0	0	2
16.459202114294044	25.6311703998834	0	0	2
16.459202114294044	7.42	0	0	2
[NumSegments] = 24
0	1	-1	0	0	0	0
1	2	-1	0	0	0	0
2	3	-1	0	0	0	0
3	0	-1	0	0	0	0
4	5	-1	0	0	0	0
5	6	-1	0	0	0	0
6	7	-1	0	0	0	0
7	4	-1	0	0	0	0
8	9	-1	0	0	0	0
9	10	-1	0	0	0	0
10	11	-1	0	0	0	0
11	8	-1	0	0	0	0
12	13	-1	0	0	0	0
13	14	-1	0	0	0	0
14	15	-1	0	0	0	0
15	12	-1	0	0	0	0
16	17	-1	0	0	0	1
17	18	-1	0	0	0	1
18	19	-1	0	0	0	1
19	16	-1	0	0	0	1
20	21	-1	0	0	0	2
21	22	-1	0	0	0	2
22	23	-1	0	0	0	2
23	20	-1	0	0	0	2
[NumArcSegments] = 0
[NumHoles] = 0
[NumBlockLabels] = 6
27.25	41.400000000000006	1	-1	0	0
27.25	82.80000000000001	6	-1	0	0
17.459800528573513	27.247167757015845	7	-1	1	0
16.779401585720535	16.5155851999417	7	-1	1	0
17.79	7.41	6	-1	0	0
36.71	7.41	6	-1	0	0
