[Format] = 1
[Precision] = 1e-10
[MinAngle] = 30
[DoSmartMesh] = 1
[Depth] = 18.9
[LengthUnits] = millimeters
[ProblemType] = planar
[Coordinates] = cartesian
[Comment] = "Add comments here."
[PointProps] = 0
[BdryProps] = 0
[BlockProps] = 8
  <BeginBlock>
    <BlockName> = "name5"
    <ex> = 100000.0
    <ey> = 100000.0
    <qv> = 0
  <EndBlock>
  <BeginBlock>
    <BlockName> = "name1"
    <ex> = 0.0
    <ey> = 0.0
    <qv> = 0
  <EndBlock>
  <BeginBlock>
    <BlockName> = "name2"
    <ex> = 0.0
    <ey> = 0.0
    <qv> = 0
  <EndBlock>
  <BeginBlock>
    <BlockName> = "Primary_wire_insulation"
    <ex> = 0.0
    <ey> = 0.0
    <qv> = 0
  <EndBlock>
  <BeginBlock>
    <BlockName> = "Secondary_wire_insulation"
    <ex> = 0.0
    <ey> = 0.0
    <qv> = 0
  <EndBlock>
  <BeginBlock>
    <BlockName> = "Air"
    <ex> = 1
    <ey> = 1
    <qv> = 0
  <EndBlock>
  <BeginBlock>
    <BlockName> = "Copper_primary"
    <ex> = 1
    <ey> = 1
    <qv> = 0
  <EndBlock>
  <BeginBlock>
    <BlockName> = "Copper_secondary"
    <ex> = 1
    <ey> = 1
    <qv> = 0
  <EndBlock>
[ConductorProps] = 4
  <BeginConductor>
    <ConductorName> = Primary0
    <vc> = 0
    <qc> = 0
    <ConductorType> = 1
    <Vc> = 0.0
  <EndConductor>
  <BeginConductor>
    <ConductorName> = Primary35
    <vc> = 0
    <qc> = 0
    <ConductorType> = 1
    <Vc> = 275.2808988764045
  <EndConductor>
  <BeginConductor>
    <ConductorName> = Primary70
    <vc> = 0
    <qc> = 0
    <ConductorType> = 1
    <Vc> = 550.561797752809
  <EndConductor>
  <BeginConductor>
    <ConductorName> = Primary89
    <vc> = 0
    <qc> = 0
    <ConductorType> = 1
    <Vc> = 825.8426966292134
  <EndConductor>
[NumPoints] = 44
0	0	0	0	0
0	55.2	0	0	0
54.5	55.2	0	0	0
54.5	0	0	0	0
36.699999999999996	7.4	0	0	0
47.849999999999994	7.4	0	0	0
47.849999999999994	47.8	0	0	0
36.699999999999996	47.8	0	0	0
-81.75	-82.80000000000001	0	0	0
136.25	-82.80000000000001	0	0	0
136.25	138.0	0	0	0
-81.75	138.0	0	0	0
6.65	7.4	0	0	0
17.8	7.4	0	0	0
17.8	47.8	0	0	0
6.65	47.79	0	0	0
6.65	42.8	0	0	0
15.8	42.8	0	0	0
15.8	12.4	0	0	0
6.65	12.4	0	0	0
15.780000000000001	12.42	0	0	1
15.780000000000001	42.183962999854245	0	0	1
14.939601057147023	42.183962999854245	0	0	1
14.939601057147023	12.42	0	0	1
14.919601057147023	12.41	0	0	0
14.919601057147023	42.79	0	0	0
14.819601057147024	42.79	0	0	0
14.819601057147024	12.41	0	0	0
14.799601057147022	12.42	0	0	2
14.799601057147022	42.183962999854245	0	0	2
13.959202114294044	42.183962999854245	0	0	2
13.959202114294044	12.42	0	0	2
13.939202114294044	12.41	0	0	0
13.939202114294044	42.79	0	0	0
13.839202114294045	42.79	0	0	0
13.839202114294045	12.41	0	0	0
13.819202114294045	12.42	0	0	3
13.819202114294045	28.57757991420659	0	0	3
12.978803171441067	28.57757991420659	0	0	3
12.978803171441067	12.42	0	0	3
12.958803171441065	12.41	0	0	0
12.958803171441065	42.79	0	0	0
12.858803171441066	42.79	0	0	0
12.858803171441066	12.41	0	0	0
[NumSegments] = 45
0	1	-1	0	0	0	0
1	2	-1	0	0	0	0
2	3	-1	0	0	0	0
3	0	-1	0	0	0	0
4	5	-1	0	0	0	0
5	6	-1	0	0	0	0
6	7	-1	0	0	0	0
7	4	-1	0	0	0	0
8	9	-1	0	0	0	0
9	10	-1	0	0	0	0
10	11	-1	0	0	0	0
11	8	-1	0	0	0	0
12	13	-1	0	0	0	0
13	14	-1	0	0	0	0
14	15	-1	0	0	0	0
15	16	-1	0	0	0	0
16	17	-1	0	0	0	0
17	18	-1	0	0	0	0
18	19	-1	0	0	0	0
19	12	-1	0	0	0	0
16	19	-1	0	0	0	1
20	21	-1	0	0	0	1
21	22	-1	0	0	0	1
22	23	-1	0	0	0	1
23	20	-1	0	0	0	1
24	25	-1	0	0	0	0
25	26	-1	0	0	0	0
26	27	-1	0	0	0	0
27	24	-1	0	0	0	0
28	29	-1	0	0	0	2
29	30	-1	0	0	0	2
30	31	-1	0	0	0	2
31	28	-1	0	0	0	2
32	33	-1	0	0	0	0
33	34	-1	0	0	0	0
34	35	-1	0	0	0	0
35	32	-1	0	0	0	0
36	37	-1	0	0	0	3
37	38	-1	0	0	0	3
38	39	-1	0	0	0	3
39	36	-1	0	0	0	3
40	41	-1	0	0	0	0
41	42	-1	0	0	0	0
42	43	-1	0	0	0	0
43	40	-1	0	0	0	0
[NumArcSegments] = 0
[NumHoles] = 0
[NumBlockLabels] = 11
27.25	41.400000000000006	1	-1	0	0
27.25	82.80000000000001	6	-1	0	0
16.79	9.91	3	-1	1	0
15.359800528573512	27.29198149992712	7	-1	1	0
14.879601057147022	15.2	2	-1	1	0
14.379401585720533	27.29198149992712	7	-1	1	0
13.899202114294043	15.2	2	-1	1	0
13.399002642867556	20.488789957103297	7	-1	1	0
12.918803171441064	15.2	2	-1	1	0
15.790000000000001	12.41	6	-1	0	0
38.71	12.41	6	-1	0	0
