[Format] = 4.0
[Frequency] = 100000.0
[Precision] = 1e-09
[MinAngle] = 30
[DoSmartMesh] = 1
[Depth] = 18.9
[LengthUnits] = millimeters
[ProblemType] = planar
[Coordinates] = cartesian
[ACSolver] = 0
[PrevType] = 0
[PrevSoln] = ''
[Comment] = "Add comments here."
[PointProps] = 0
[BdryProps] = 0
[BlockProps] = 4
  <BeginBlock>
    <BlockName> = "name5"
    <Mu_x> = 1900.0
    <Mu_y> = 1900.0
    <H_c> = 0
    <H_cAngle> = 0
    <J_re> = 0
    <J_im> = 0
    <Sigma> = 2e-06
    <d_lam> = 0
    <Phi_h> = 0
    <Phi_hx> = 0
    <Phi_hy> = 0
    <LamType> = 0
    <LamFill> = 1
    <NStrands> = 0
    <WireD> = 0
    <BHPoints> = 0
  <EndBlock>
  <BeginBlock>
    <BlockName> = "Air"
    <Mu_x> = 1
    <Mu_y> = 1
    <H_c> = 0
    <H_cAngle> = 0
    <J_re> = 0
    <J_im> = 0
    <Sigma> = 0.0
    <d_lam> = 0
    <Phi_h> = 0
    <Phi_hx> = 0
    <Phi_hy> = 0
    <LamType> = 0
    <LamFill> = 1
    <NStrands> = 0
    <WireD> = 0
    <BHPoints> = 0
  <EndBlock>
  <BeginBlock>
    <BlockName> = "Copper_primary"
    <Mu_x> = 1
    <Mu_y> = 1
    <H_c> = 0
    <H_cAngle> = 0
    <J_re> = 0
    <J_im> = 0
    <Sigma> = 58.0
    <d_lam> = 0
    <Phi_h> = 0
    <Phi_hx> = 0
    <Phi_hy> = 0
    <LamType> = 3
    <LamFill> = 1
    <NStrands> = 1
    <WireD> = 1.3311963527822612
    <BHPoints> = 0
  <EndBlock>
  <BeginBlock>
    <BlockName> = "Copper_secondary"
    <Mu_x> = 1
    <Mu_y> = 1
    <H_c> = 0
    <H_cAngle> = 0
    <J_re> = 0
    <J_im> = 0
    <Sigma> = 58.0
    <d_lam> = 0
    <Phi_h> = 0
    <Phi_hx> = 0
    <Phi_hy> = 0
    <LamType> = 3
    <LamFill> = 1
    <NStrands> = 1
    <WireD> = 0.5319230405352435
    <BHPoints> = 0
  <EndBlock>
[CircuitProps] = 1
  <BeginCircuit>
    <CircuitName> = Primary
    <TotalAmps_re> = 0.09022137380655777
    <TotalAmps_im> = 0
    <CircuitType> = 1
  <EndCircuit>
[NumPoints] = 176
0	0	0	0
0	55.2	0	0
54.5	55.2	0	0
54.5	0	0	0
6.65	7.4	0	0
17.8	7.4	0	0
17.8	47.8	0	0
6.65	47.8	0	0
36.699999999999996	7.4	0	0
47.849999999999994	7.4	0	0
47.849999999999994	47.8	0	0
36.699999999999996	47.8	0	0
-81.75	-82.80000000000001	0	0
136.25	-82.80000000000001	0	0
136.25	138.0	0	0
-81.75	138.0	0	0
17.78	8.0861	0	0
17.1139	8.7522	0	0
16.4478	8.0861	0	0
17.1139	7.42	0	0
38.052200000000006	8.0861	0	0
37.386100000000006	8.7522	0	0
36.720000000000006	8.0861	0	0
37.386100000000006	7.42	0	0
17.78	9.4283	0	0
17.1139	10.0944	0	0
16.4478	9.4283	0	0
17.1139	8.7622	0	0
38.052200000000006	9.4283	0	0
37.386100000000006	10.0944	0	0
36.720000000000006	9.4283	0	0
37.386100000000006	8.7622	0	0
17.78	10.770499999999998	0	0
17.1139	11.436599999999999	0	0
16.4478	10.770499999999998	0	0
17.1139	10.104399999999998	0	0
38.052200000000006	10.770499999999998	0	0
37.386100000000006	11.436599999999999	0	0
36.720000000000006	10.770499999999998	0	0
37.386100000000006	10.104399999999998	0	0
17.78	12.1127	0	0
17.1139	12.7788	0	0
16.4478	12.1127	0	0
17.1139	11.4466	0	0
38.052200000000006	12.1127	0	0
37.386100000000006	12.7788	0	0
36.720000000000006	12.1127	0	0
37.386100000000006	11.4466	0	0
17.78	13.454899999999999	0	0
17.1139	14.120999999999999	0	0
16.4478	13.454899999999999	0	0
17.1139	12.788799999999998	0	0
38.052200000000006	13.454899999999999	0	0
37.386100000000006	14.120999999999999	0	0
36.720000000000006	13.454899999999999	0	0
37.386100000000006	12.788799999999998	0	0
17.78	14.7971	0	0
17.1139	15.4632	0	0
16.4478	14.7971	0	0
17.1139	14.131	0	0
38.052200000000006	14.7971	0	0
37.386100000000006	15.4632	0	0
36.720000000000006	14.7971	0	0
37.386100000000006	14.131	0	0
17.78	16.1393	0	0
17.1139	16.8054	0	0
16.4478	16.1393	0	0
17.1139	15.473199999999999	0	0
38.052200000000006	16.1393	0	0
37.386100000000006	16.8054	0	0
36.720000000000006	16.1393	0	0
37.386100000000006	15.473199999999999	0	0
17.78	17.481499999999997	0	0
17.1139	18.147599999999997	0	0
16.4478	17.481499999999997	0	0
17.1139	16.815399999999997	0	0
38.052200000000006	17.481499999999997	0	0
37.386100000000006	18.147599999999997	0	0
36.720000000000006	17.481499999999997	0	0
37.386100000000006	16.815399999999997	0	0
17.78	18.8237	0	0
17.1139	19.4898	0	0
16.4478	18.8237	0	0
17.1139	18.1576	0	0
38.052200000000006	18.8237	0	0
37.386100000000006	19.4898	0	0
36.720000000000006	18.8237	0	0
37.386100000000006	18.1576	0	0
17.78	20.1659	0	0
17.1139	20.832	0	0
16.4478	20.1659	0	0
17.1139	19.4998	0	0
38.052200000000006	20.1659	0	0
37.386100000000006	20.832	0	0
36.720000000000006	20.1659	0	0
37.386100000000006	19.4998	0	0
17.78	21.5081	0	0
17.1139	22.1742	0	0
16.4478	21.5081	0	0
17.1139	20.842	0	0
38.052200000000006	21.5081	0	0
37.386100000000006	22.1742	0	0
36.720000000000006	21.5081	0	0
37.386100000000006	20.842	0	0
17.78	22.850299999999997	0	0
17.1139	23.516399999999997	0	0
16.4478	22.850299999999997	0	0
17.1139	22.184199999999997	0	0
38.052200000000006	22.850299999999997	0	0
37.386100000000006	23.516399999999997	0	0
36.720000000000006	22.850299999999997	0	0
37.386100000000006	22.184199999999997	0	0
17.78	24.1925	0	0
17.1139	24.8586	0	0
16.4478	24.1925	0	0
17.1139	23.5264	0	0
38.052200000000006	24.1925	0	0
37.386100000000006	24.8586	0	0
36.720000000000006	24.1925	0	0
37.386100000000006	23.5264	0	0
17.78	25.534699999999997	0	0
17.1139	26.200799999999997	0	0
16.4478	25.534699999999997	0	0
17.1139	24.868599999999997	0	0
38.052200000000006	25.534699999999997	0	0
37.386100000000006	26.200799999999997	0	0
36.720000000000006	25.534699999999997	0	0
37.386100000000006	24.868599999999997	0	0
17.78	26.876899999999996	0	0
17.1139	27.542999999999996	0	0
16.4478	26.876899999999996	0	0
17.1139	26.210799999999995	0	0
38.052200000000006	26.876899999999996	0	0
37.386100000000006	27.542999999999996	0	0
36.720000000000006	26.876899999999996	0	0
37.386100000000006	26.210799999999995	0	0
17.78	28.219099999999997	0	0
17.1139	28.885199999999998	0	0
16.4478	28.219099999999997	0	0
17.1139	27.552999999999997	0	0
38.052200000000006	28.219099999999997	0	0
37.386100000000006	28.885199999999998	0	0
36.720000000000006	28.219099999999997	0	0
37.386100000000006	27.552999999999997	0	0
17.78	29.561299999999996	0	0
17.1139	30.227399999999996	0	0
16.4478	29.561299999999996	0	0
17.1139	28.895199999999996	0	0
38.052200000000006	29.561299999999996	0	0
37.386100000000006	30.227399999999996	0	0
36.720000000000006	29.561299999999996	0	0
37.386100000000006	28.895199999999996	0	0
17.78	30.903499999999998	0	0
17.1139	31.569599999999998	0	0
16.4478	30.903499999999998	0	0
17.1139	30.237399999999997	0	0
38.052200000000006	30.903499999999998	0	0
37.386100000000006	31.569599999999998	0	0
36.720000000000006	30.903499999999998	0	0
37.386100000000006	30.237399999999997	0	0
17.78	32.2457	0	0
17.1139	32.9118	0	0
16.4478	32.2457	0	0
17.1139	31.5796	0	0
38.052200000000006	32.2457	0	0
37.386100000000006	32.9118	0	0
36.720000000000006	32.2457	0	0
37.386100000000006	31.5796	0	0
17.78	33.5879	0	0
17.1139	34.254	0	0
16.4478	33.5879	0	0
17.1139	32.9218	0	0
38.052200000000006	33.5879	0	0
37.386100000000006	34.254	0	0
36.720000000000006	33.5879	0	0
37.386100000000006	32.9218	0	0
[NumSegments] = 16
0	1	-1	0	0	0
1	2	-1	0	0	0
2	3	-1	0	0	0
3	0	-1	0	0	0
4	5	-1	0	0	0
5	6	-1	0	0	0
6	7	-1	0	0	0
7	4	-1	0	0	0
8	9	-1	0	0	0
9	10	-1	0	0	0
10	11	-1	0	0	0
11	8	-1	0	0	0
12	13	-1	0	0	0
13	14	-1	0	0	0
14	15	-1	0	0	0
15	12	-1	0	0	0
[NumArcSegments] = 160
16	17	90	1	0	0	0	1
17	18	90	1	0	0	0	1
18	19	90	1	0	0	0	1
19	16	90	1	0	0	0	1
20	21	90	1	0	0	0	1
21	22	90	1	0	0	0	1
22	23	90	1	0	0	0	1
23	20	90	1	0	0	0	1
24	25	90	1	0	0	0	1
25	26	90	1	0	0	0	1
26	27	90	1	0	0	0	1
27	24	90	1	0	0	0	1
28	29	90	1	0	0	0	1
29	30	90	1	0	0	0	1
30	31	90	1	0	0	0	1
31	28	90	1	0	0	0	1
32	33	90	1	0	0	0	1
33	34	90	1	0	0	0	1
34	35	90	1	0	0	0	1
35	32	90	1	0	0	0	1
36	37	90	1	0	0	0	1
37	38	90	1	0	0	0	1
38	39	90	1	0	0	0	1
39	36	90	1	0	0	0	1
40	41	90	1	0	0	0	1
41	42	90	1	0	0	0	1
42	43	90	1	0	0	0	1
43	40	90	1	0	0	0	1
44	45	90	1	0	0	0	1
45	46	90	1	0	0	0	1
46	47	90	1	0	0	0	1
47	44	90	1	0	0	0	1
48	49	90	1	0	0	0	1
49	50	90	1	0	0	0	1
50	51	90	1	0	0	0	1
51	48	90	1	0	0	0	1
52	53	90	1	0	0	0	1
53	54	90	1	0	0	0	1
54	55	90	1	0	0	0	1
55	52	90	1	0	0	0	1
56	57	90	1	0	0	0	1
57	58	90	1	0	0	0	1
58	59	90	1	0	0	0	1
59	56	90	1	0	0	0	1
60	61	90	1	0	0	0	1
61	62	90	1	0	0	0	1
62	63	90	1	0	0	0	1
63	60	90	1	0	0	0	1
64	65	90	1	0	0	0	1
65	66	90	1	0	0	0	1
66	67	90	1	0	0	0	1
67	64	90	1	0	0	0	1
68	69	90	1	0	0	0	1
69	70	90	1	0	0	0	1
70	71	90	1	0	0	0	1
71	68	90	1	0	0	0	1
72	73	90	1	0	0	0	1
73	74	90	1	0	0	0	1
74	75	90	1	0	0	0	1
75	72	90	1	0	0	0	1
76	77	90	1	0	0	0	1
77	78	90	1	0	0	0	1
78	79	90	1	0	0	0	1
79	76	90	1	0	0	0	1
80	81	90	1	0	0	0	1
81	82	90	1	0	0	0	1
82	83	90	1	0	0	0	1
83	80	90	1	0	0	0	1
84	85	90	1	0	0	0	1
85	86	90	1	0	0	0	1
86	87	90	1	0	0	0	1
87	84	90	1	0	0	0	1
88	89	90	1	0	0	0	1
89	90	90	1	0	0	0	1
90	91	90	1	0	0	0	1
91	88	90	1	0	0	0	1
92	93	90	1	0	0	0	1
93	94	90	1	0	0	0	1
94	95	90	1	0	0	0	1
95	92	90	1	0	0	0	1
96	97	90	1	0	0	0	1
97	98	90	1	0	0	0	1
98	99	90	1	0	0	0	1
99	96	90	1	0	0	0	1
100	101	90	1	0	0	0	1
101	102	90	1	0	0	0	1
102	103	90	1	0	0	0	1
103	100	90	1	0	0	0	1
104	105	90	1	0	0	0	1
105	106	90	1	0	0	0	1
106	107	90	1	0	0	0	1
107	104	90	1	0	0	0	1
108	109	90	1	0	0	0	1
109	110	90	1	0	0	0	1
110	111	90	1	0	0	0	1
111	108	90	1	0	0	0	1
112	113	90	1	0	0	0	1
113	114	90	1	0	0	0	1
114	115	90	1	0	0	0	1
115	112	90	1	0	0	0	1
116	117	90	1	0	0	0	1
117	118	90	1	0	0	0	1
118	119	90	1	0	0	0	1
119	116	90	1	0	0	0	1
120	121	90	1	0	0	0	1
121	122	90	1	0	0	0	1
122	123	90	1	0	0	0	1
123	120	90	1	0	0	0	1
124	125	90	1	0	0	0	1
125	126	90	1	0	0	0	1
126	127	90	1	0	0	0	1
127	124	90	1	0	0	0	1
128	129	90	1	0	0	0	1
129	130	90	1	0	0	0	1
130	131	90	1	0	0	0	1
131	128	90	1	0	0	0	1
132	133	90	1	0	0	0	1
133	134	90	1	0	0	0	1
134	135	90	1	0	0	0	1
135	132	90	1	0	0	0	1
136	137	90	1	0	0	0	1
137	138	90	1	0	0	0	1
138	139	90	1	0	0	0	1
139	136	90	1	0	0	0	1
140	141	90	1	0	0	0	1
141	142	90	1	0	0	0	1
142	143	90	1	0	0	0	1
143	140	90	1	0	0	0	1
144	145	90	1	0	0	0	1
145	146	90	1	0	0	0	1
146	147	90	1	0	0	0	1
147	144	90	1	0	0	0	1
148	149	90	1	0	0	0	1
149	150	90	1	0	0	0	1
150	151	90	1	0	0	0	1
151	148	90	1	0	0	0	1
152	153	90	1	0	0	0	1
153	154	90	1	0	0	0	1
154	155	90	1	0	0	0	1
155	152	90	1	0	0	0	1
156	157	90	1	0	0	0	1
157	158	90	1	0	0	0	1
158	159	90	1	0	0	0	1
159	156	90	1	0	0	0	1
160	161	90	1	0	0	0	1
161	162	90	1	0	0	0	1
162	163	90	1	0	0	0	1
163	160	90	1	0	0	0	1
164	165	90	1	0	0	0	1
165	166	90	1	0	0	0	1
166	167	90	1	0	0	0	1
167	164	90	1	0	0	0	1
168	169	90	1	0	0	0	1
169	170	90	1	0	0	0	1
170	171	90	1	0	0	0	1
171	168	90	1	0	0	0	1
172	173	90	1	0	0	0	1
173	174	90	1	0	0	0	1
174	175	90	1	0	0	0	1
175	172	90	1	0	0	0	1
[NumHoles] = 0
[NumBlockLabels] = 44
27.25	41.400000000000006	1	-1	0	0	0	0	0
27.25	82.80000000000001	2	-1	0	0	0	0	0
17.1139	8.0861	3	-1	1	0	0	1	1
37.386100000000006	8.0861	3	-1	1	0	0	-1	1
17.1139	9.4283	3	-1	1	0	0	1	1
37.386100000000006	9.4283	3	-1	1	0	0	-1	1
17.1139	10.770499999999998	3	-1	1	0	0	1	1
37.386100000000006	10.770499999999998	3	-1	1	0	0	-1	1
17.1139	12.1127	3	-1	1	0	0	1	1
37.386100000000006	12.1127	3	-1	1	0	0	-1	1
17.1139	13.454899999999999	3	-1	1	0	0	1	1
37.386100000000006	13.454899999999999	3	-1	1	0	0	-1	1
17.1139	14.7971	3	-1	1	0	0	1	1
37.386100000000006	14.7971	3	-1	1	0	0	-1	1
17.1139	16.1393	3	-1	1	0	0	1	1
37.386100000000006	16.1393	3	-1	1	0	0	-1	1
17.1139	17.481499999999997	3	-1	1	0	0	1	1
37.386100000000006	17.481499999999997	3	-1	1	0	0	-1	1
17.1139	18.8237	3	-1	1	0	0	1	1
37.386100000000006	18.8237	3	-1	1	0	0	-1	1
17.1139	20.1659	3	-1	1	0	0	1	1
37.386100000000006	20.1659	3	-1	1	0	0	-1	1
17.1139	21.5081	3	-1	1	0	0	1	1
37.386100000000006	21.5081	3	-1	1	0	0	-1	1
17.1139	22.850299999999997	3	-1	1	0	0	1	1
37.386100000000006	22.850299999999997	3	-1	1	0	0	-1	1
17.1139	24.1925	3	-1	1	0	0	1	1
37.386100000000006	24.1925	3	-1	1	0	0	-1	1
17.1139	25.534699999999997	3	-1	1	0	0	1	1
37.386100000000006	25.534699999999997	3	-1	1	0	0	-1	1
17.1139	26.876899999999996	3	-1	1	0	0	1	1
37.386100000000006	26.876899999999996	3	-1	1	0	0	-1	1
17.1139	28.219099999999997	3	-1	1	0	0	1	1
37.386100000000006	28.219099999999997	3	-1	1	0	0	-1	1
17.1139	29.561299999999996	3	-1	1	0	0	1	1
37.386100000000006	29.561299999999996	3	-1	1	0	0	-1	1
17.1139	30.903499999999998	3	-1	1	0	0	1	1
37.386100000000006	30.903499999999998	3	-1	1	0	0	-1	1
17.1139	32.2457	3	-1	1	0	0	1	1
37.386100000000006	32.2457	3	-1	1	0	0	-1	1
17.1139	33.5879	3	-1	1	0	0	1	1
37.386100000000006	33.5879	3	-1	1	0	0	-1	1
17.79	7.41	2	-1	0	0	0	0	0
36.72	7.42	2	-1	0	0	0	0	0
