[Format] = 1
[Precision] = 1e-10
[MinAngle] = 30
[DoSmartMesh] = 1
[Depth] = 18.9
[LengthUnits] = millimeters
[ProblemType] = planar
[Coordinates] = cartesian
[Comment] = "Add comments here."
[PointProps] = 0
[BdryProps] = 0
[BlockProps] = 8
  <BeginBlock>
    <BlockName> = "name5"
    <ex> = 100000.0
    <ey> = 100000.0
    <qv> = 0
  <EndBlock>
  <BeginBlock>
    <BlockName> = "kapton 100"
    <ex> = 3.9
    <ey> = 3.9
    <qv> = 0
  <EndBlock>
  <BeginBlock>
    <BlockName> = "name2"
    <ex> = 0.0
    <ey> = 0.0
    <qv> = 0
  <EndBlock>
  <BeginBlock>
    <BlockName> = "Primary_wire_insulation"
    <ex> = 3.3
    <ey> = 3.3
    <qv> = 0
  <EndBlock>
  <BeginBlock>
    <BlockName> = "Secondary_wire_insulation"
    <ex> = 3.3
    <ey> = 3.3
    <qv> = 0
  <EndBlock>
  <BeginBlock>
    <BlockName> = "Air"
    <ex> = 1
    <ey> = 1
    <qv> = 0
  <EndBlock>
  <BeginBlock>
    <BlockName> = "Copper_primary"
    <ex> = 1
    <ey> = 1
    <qv> = 0
  <EndBlock>
  <BeginBlock>
    <BlockName> = "Copper_secondary"
    <ex> = 1
    <ey> = 1
    <qv> = 0
  <EndBlock>
[ConductorProps] = 89
  <BeginConductor>
    <ConductorName> = Primary0
    <vc> = 0
    <qc> = 0
    <ConductorType> = 1
    <Vc> = 0.0
  <EndConductor>
  <BeginConductor>
    <ConductorName> = Primary1
    <vc> = 0
    <qc> = 0
    <ConductorType> = 1
    <Vc> = 7.865168539325842
  <EndConductor>
  <BeginConductor>
    <ConductorName> = Primary2
    <vc> = 0
    <qc> = 0
    <ConductorType> = 1
    <Vc> = 15.730337078651685
  <EndConductor>
  <BeginConductor>
    <ConductorName> = Primary3
    <vc> = 0
    <qc> = 0
    <ConductorType> = 1
    <Vc> = 23.595505617977526
  <EndConductor>
  <BeginConductor>
    <ConductorName> = Primary4
    <vc> = 0
    <qc> = 0
    <ConductorType> = 1
    <Vc> = 31.46067415730337
  <EndConductor>
  <BeginConductor>
    <ConductorName> = Primary5
    <vc> = 0
    <qc> = 0
    <ConductorType> = 1
    <Vc> = 39.32584269662921
  <EndConductor>
  <BeginConductor>
    <ConductorName> = Primary6
    <vc> = 0
    <qc> = 0
    <ConductorType> = 1
    <Vc> = 47.19101123595505
  <EndConductor>
  <BeginConductor>
    <ConductorName> = Primary7
    <vc> = 0
    <qc> = 0
    <ConductorType> = 1
    <Vc> = 55.056179775280896
  <EndConductor>
  <BeginConductor>
    <ConductorName> = Primary8
    <vc> = 0
    <qc> = 0
    <ConductorType> = 1
    <Vc> = 62.92134831460674
  <EndConductor>
  <BeginConductor>
    <ConductorName> = Primary9
    <vc> = 0
    <qc> = 0
    <ConductorType> = 1
    <Vc> = 70.78651685393258
  <EndConductor>
  <BeginConductor>
    <ConductorName> = Primary10
    <vc> = 0
    <qc> = 0
    <ConductorType> = 1
    <Vc> = 78.65168539325842
  <EndConductor>
  <BeginConductor>
    <ConductorName> = Primary11
    <vc> = 0
    <qc> = 0
    <ConductorType> = 1
    <Vc> = 86.51685393258427
  <EndConductor>
  <BeginConductor>
    <ConductorName> = Primary12
    <vc> = 0
    <qc> = 0
    <ConductorType> = 1
    <Vc> = 94.3820224719101
  <EndConductor>
  <BeginConductor>
    <ConductorName> = Primary13
    <vc> = 0
    <qc> = 0
    <ConductorType> = 1
    <Vc> = 102.24719101123596
  <EndConductor>
  <BeginConductor>
    <ConductorName> = Primary14
    <vc> = 0
    <qc> = 0
    <ConductorType> = 1
    <Vc> = 110.11235955056179
  <EndConductor>
  <BeginConductor>
    <ConductorName> = Primary15
    <vc> = 0
    <qc> = 0
    <ConductorType> = 1
    <Vc> = 117.97752808988764
  <EndConductor>
  <BeginConductor>
    <ConductorName> = Primary16
    <vc> = 0
    <qc> = 0
    <ConductorType> = 1
    <Vc> = 125.84269662921348
  <EndConductor>
  <BeginConductor>
    <ConductorName> = Primary17
    <vc> = 0
    <qc> = 0
    <ConductorType> = 1
    <Vc> = 133.7078651685393
  <EndConductor>
  <BeginConductor>
    <ConductorName> = Primary18
    <vc> = 0
    <qc> = 0
    <ConductorType> = 1
    <Vc> = 141.57303370786516
  <EndConductor>
  <BeginConductor>
    <ConductorName> = Primary19
    <vc> = 0
    <qc> = 0
    <ConductorType> = 1
    <Vc> = 149.43820224719101
  <EndConductor>
  <BeginConductor>
    <ConductorName> = Primary20
    <vc> = 0
    <qc> = 0
    <ConductorType> = 1
    <Vc> = 157.30337078651684
  <EndConductor>
  <BeginConductor>
    <ConductorName> = Primary21
    <vc> = 0
    <qc> = 0
    <ConductorType> = 1
    <Vc> = 165.1685393258427
  <EndConductor>
  <BeginConductor>
    <ConductorName> = Primary22
    <vc> = 0
    <qc> = 0
    <ConductorType> = 1
    <Vc> = 173.03370786516854
  <EndConductor>
  <BeginConductor>
    <ConductorName> = Primary23
    <vc> = 0
    <qc> = 0
    <ConductorType> = 1
    <Vc> = 180.8988764044944
  <EndConductor>
  <BeginConductor>
    <ConductorName> = Primary24
    <vc> = 0
    <qc> = 0
    <ConductorType> = 1
    <Vc> = 188.7640449438202
  <EndConductor>
  <BeginConductor>
    <ConductorName> = Primary25
    <vc> = 0
    <qc> = 0
    <ConductorType> = 1
    <Vc> = 196.62921348314606
  <EndConductor>
  <BeginConductor>
    <ConductorName> = Primary26
    <vc> = 0
    <qc> = 0
    <ConductorType> = 1
    <Vc> = 204.4943820224719
  <EndConductor>
  <BeginConductor>
    <ConductorName> = Primary27
    <vc> = 0
    <qc> = 0
    <ConductorType> = 1
    <Vc> = 212.35955056179773
  <EndConductor>
  <BeginConductor>
    <ConductorName> = Primary28
    <vc> = 0
    <qc> = 0
    <ConductorType> = 1
    <Vc> = 220.22471910112358
  <EndConductor>
  <BeginConductor>
    <ConductorName> = Primary29
    <vc> = 0
    <qc> = 0
    <ConductorType> = 1
    <Vc> = 228.08988764044943
  <EndConductor>
  <BeginConductor>
    <ConductorName> = Primary30
    <vc> = 0
    <qc> = 0
    <ConductorType> = 1
    <Vc> = 235.95505617977528
  <EndConductor>
  <BeginConductor>
    <ConductorName> = Primary31
    <vc> = 0
    <qc> = 0
    <ConductorType> = 1
    <Vc> = 243.8202247191011
  <EndConductor>
  <BeginConductor>
    <ConductorName> = Primary32
    <vc> = 0
    <qc> = 0
    <ConductorType> = 1
    <Vc> = 251.68539325842696
  <EndConductor>
  <BeginConductor>
    <ConductorName> = Primary33
    <vc> = 0
    <qc> = 0
    <ConductorType> = 1
    <Vc> = 259.5505617977528
  <EndConductor>
  <BeginConductor>
    <ConductorName> = Primary34
    <vc> = 0
    <qc> = 0
    <ConductorType> = 1
    <Vc> = 267.4157303370786
  <EndConductor>
  <BeginConductor>
    <ConductorName> = Primary35
    <vc> = 0
    <qc> = 0
    <ConductorType> = 1
    <Vc> = 275.2808988764045
  <EndConductor>
  <BeginConductor>
    <ConductorName> = Primary36
    <vc> = 0
    <qc> = 0
    <ConductorType> = 1
    <Vc> = 283.14606741573033
  <EndConductor>
  <BeginConductor>
    <ConductorName> = Primary37
    <vc> = 0
    <qc> = 0
    <ConductorType> = 1
    <Vc> = 291.0112359550562
  <EndConductor>
  <BeginConductor>
    <ConductorName> = Primary38
    <vc> = 0
    <qc> = 0
    <ConductorType> = 1
    <Vc> = 298.87640449438203
  <EndConductor>
  <BeginConductor>
    <ConductorName> = Primary39
    <vc> = 0
    <qc> = 0
    <ConductorType> = 1
    <Vc> = 306.7415730337079
  <EndConductor>
  <BeginConductor>
    <ConductorName> = Primary40
    <vc> = 0
    <qc> = 0
    <ConductorType> = 1
    <Vc> = 314.6067415730337
  <EndConductor>
  <BeginConductor>
    <ConductorName> = Primary41
    <vc> = 0
    <qc> = 0
    <ConductorType> = 1
    <Vc> = 322.4719101123595
  <EndConductor>
  <BeginConductor>
    <ConductorName> = Primary42
    <vc> = 0
    <qc> = 0
    <ConductorType> = 1
    <Vc> = 330.3370786516854
  <EndConductor>
  <BeginConductor>
    <ConductorName> = Primary43
    <vc> = 0
    <qc> = 0
    <ConductorType> = 1
    <Vc> = 338.2022471910112
  <EndConductor>
  <BeginConductor>
    <ConductorName> = Primary44
    <vc> = 0
    <qc> = 0
    <ConductorType> = 1
    <Vc> = 346.0674157303371
  <EndConductor>
  <BeginConductor>
    <ConductorName> = Primary45
    <vc> = 0
    <qc> = 0
    <ConductorType> = 1
    <Vc> = 353.9325842696629
  <EndConductor>
  <BeginConductor>
    <ConductorName> = Primary46
    <vc> = 0
    <qc> = 0
    <ConductorType> = 1
    <Vc> = 361.7977528089888
  <EndConductor>
  <BeginConductor>
    <ConductorName> = Primary47
    <vc> = 0
    <qc> = 0
    <ConductorType> = 1
    <Vc> = 369.66292134831457
  <EndConductor>
  <BeginConductor>
    <ConductorName> = Primary48
    <vc> = 0
    <qc> = 0
    <ConductorType> = 1
    <Vc> = 377.5280898876404
  <EndConductor>
  <BeginConductor>
    <ConductorName> = Primary49
    <vc> = 0
    <qc> = 0
    <ConductorType> = 1
    <Vc> = 385.39325842696627
  <EndConductor>
  <BeginConductor>
    <ConductorName> = Primary50
    <vc> = 0
    <qc> = 0
    <ConductorType> = 1
    <Vc> = 393.2584269662921
  <EndConductor>
  <BeginConductor>
    <ConductorName> = Primary51
    <vc> = 0
    <qc> = 0
    <ConductorType> = 1
    <Vc> = 401.12359550561797
  <EndConductor>
  <BeginConductor>
    <ConductorName> = Primary52
    <vc> = 0
    <qc> = 0
    <ConductorType> = 1
    <Vc> = 408.9887640449438
  <EndConductor>
  <BeginConductor>
    <ConductorName> = Primary53
    <vc> = 0
    <qc> = 0
    <ConductorType> = 1
    <Vc> = 416.85393258426967
  <EndConductor>
  <BeginConductor>
    <ConductorName> = Primary54
    <vc> = 0
    <qc> = 0
    <ConductorType> = 1
    <Vc> = 424.71910112359546
  <EndConductor>
  <BeginConductor>
    <ConductorName> = Primary55
    <vc> = 0
    <qc> = 0
    <ConductorType> = 1
    <Vc> = 432.5842696629213
  <EndConductor>
  <BeginConductor>
    <ConductorName> = Primary56
    <vc> = 0
    <qc> = 0
    <ConductorType> = 1
    <Vc> = 440.44943820224717
  <EndConductor>
  <BeginConductor>
    <ConductorName> = Primary57
    <vc> = 0
    <qc> = 0
    <ConductorType> = 1
    <Vc> = 448.314606741573
  <EndConductor>
  <BeginConductor>
    <ConductorName> = Primary58
    <vc> = 0
    <qc> = 0
    <ConductorType> = 1
    <Vc> = 456.17977528089887
  <EndConductor>
  <BeginConductor>
    <ConductorName> = Primary59
    <vc> = 0
    <qc> = 0
    <ConductorType> = 1
    <Vc> = 464.0449438202247
  <EndConductor>
  <BeginConductor>
    <ConductorName> = Primary60
    <vc> = 0
    <qc> = 0
    <ConductorType> = 1
    <Vc> = 471.91011235955057
  <EndConductor>
  <BeginConductor>
    <ConductorName> = Primary61
    <vc> = 0
    <qc> = 0
    <ConductorType> = 1
    <Vc> = 479.77528089887636
  <EndConductor>
  <BeginConductor>
    <ConductorName> = Primary62
    <vc> = 0
    <qc> = 0
    <ConductorType> = 1
    <Vc> = 487.6404494382022
  <EndConductor>
  <BeginConductor>
    <ConductorName> = Primary63
    <vc> = 0
    <qc> = 0
    <ConductorType> = 1
    <Vc> = 495.50561797752806
  <EndConductor>
  <BeginConductor>
    <ConductorName> = Primary64
    <vc> = 0
    <qc> = 0
    <ConductorType> = 1
    <Vc> = 503.3707865168539
  <EndConductor>
  <BeginConductor>
    <ConductorName> = Primary65
    <vc> = 0
    <qc> = 0
    <ConductorType> = 1
    <Vc> = 511.23595505617976
  <EndConductor>
  <BeginConductor>
    <ConductorName> = Primary66
    <vc> = 0
    <qc> = 0
    <ConductorType> = 1
    <Vc> = 519.1011235955056
  <EndConductor>
  <BeginConductor>
    <ConductorName> = Primary67
    <vc> = 0
    <qc> = 0
    <ConductorType> = 1
    <Vc> = 526.9662921348314
  <EndConductor>
  <BeginConductor>
    <ConductorName> = Primary68
    <vc> = 0
    <qc> = 0
    <ConductorType> = 1
    <Vc> = 534.8314606741573
  <EndConductor>
  <BeginConductor>
    <ConductorName> = Primary69
    <vc> = 0
    <qc> = 0
    <ConductorType> = 1
    <Vc> = 542.6966292134831
  <EndConductor>
  <BeginConductor>
    <ConductorName> = Primary70
    <vc> = 0
    <qc> = 0
    <ConductorType> = 1
    <Vc> = 550.561797752809
  <EndConductor>
  <BeginConductor>
    <ConductorName> = Primary71
    <vc> = 0
    <qc> = 0
    <ConductorType> = 1
    <Vc> = 558.4269662921348
  <EndConductor>
  <BeginConductor>
    <ConductorName> = Primary72
    <vc> = 0
    <qc> = 0
    <ConductorType> = 1
    <Vc> = 566.2921348314607
  <EndConductor>
  <BeginConductor>
    <ConductorName> = Primary73
    <vc> = 0
    <qc> = 0
    <ConductorType> = 1
    <Vc> = 574.1573033707865
  <EndConductor>
  <BeginConductor>
    <ConductorName> = Primary74
    <vc> = 0
    <qc> = 0
    <ConductorType> = 1
    <Vc> = 582.0224719101124
  <EndConductor>
  <BeginConductor>
    <ConductorName> = Primary75
    <vc> = 0
    <qc> = 0
    <ConductorType> = 1
    <Vc> = 589.8876404494382
  <EndConductor>
  <BeginConductor>
    <ConductorName> = Primary76
    <vc> = 0
    <qc> = 0
    <ConductorType> = 1
    <Vc> = 597.7528089887641
  <EndConductor>
  <BeginConductor>
    <ConductorName> = Primary77
    <vc> = 0
    <qc> = 0
    <ConductorType> = 1
    <Vc> = 605.6179775280899
  <EndConductor>
  <BeginConductor>
    <ConductorName> = Primary78
    <vc> = 0
    <qc> = 0
    <ConductorType> = 1
    <Vc> = 613.4831460674158
  <EndConductor>
  <BeginConductor>
    <ConductorName> = Primary79
    <vc> = 0
    <qc> = 0
    <ConductorType> = 1
    <Vc> = 621.3483146067415
  <EndConductor>
  <BeginConductor>
    <ConductorName> = Primary80
    <vc> = 0
    <qc> = 0
    <ConductorType> = 1
    <Vc> = 629.2134831460673
  <EndConductor>
  <BeginConductor>
    <ConductorName> = Primary81
    <vc> = 0
    <qc> = 0
    <ConductorType> = 1
    <Vc> = 637.0786516853932
  <EndConductor>
  <BeginConductor>
    <ConductorName> = Primary82
    <vc> = 0
    <qc> = 0
    <ConductorType> = 1
    <Vc> = 644.943820224719
  <EndConductor>
  <BeginConductor>
    <ConductorName> = Primary83
    <vc> = 0
    <qc> = 0
    <ConductorType> = 1
    <Vc> = 652.8089887640449
  <EndConductor>
  <BeginConductor>
    <ConductorName> = Primary84
    <vc> = 0
    <qc> = 0
    <ConductorType> = 1
    <Vc> = 660.6741573033707
  <EndConductor>
  <BeginConductor>
    <ConductorName> = Primary85
    <vc> = 0
    <qc> = 0
    <ConductorType> = 1
    <Vc> = 668.5393258426966
  <EndConductor>
  <BeginConductor>
    <ConductorName> = Primary86
    <vc> = 0
    <qc> = 0
    <ConductorType> = 1
    <Vc> = 676.4044943820224
  <EndConductor>
  <BeginConductor>
    <ConductorName> = Primary87
    <vc> = 0
    <qc> = 0
    <ConductorType> = 1
    <Vc> = 684.2696629213483
  <EndConductor>
  <BeginConductor>
    <ConductorName> = Primary88
    <vc> = 0
    <qc> = 0
    <ConductorType> = 1
    <Vc> = 692.1348314606741
  <EndConductor>
[NumPoints] = 736
0	0	0	0	0
0	55.2	0	0	0
54.5	55.2	0	0	0
54.5	0	0	0	0
36.699999999999996	7.4	0	0	0
47.849999999999994	7.4	0	0	0
47.849999999999994	47.8	0	0	0
36.699999999999996	47.8	0	0	0
-81.75	-82.80000000000001	0	0	0
136.25	-82.80000000000001	0	0	0
136.25	138.0	0	0	0
-81.75	138.0	0	0	0
6.65	7.4	0	0	0
17.8	7.4	0	0	0
17.8	47.8	0	0	0
6.65	47.8	0	0	0
17.78	7.840199471426489	0	0	0
17.359800528573512	8.260398942852978	0	0	0
16.939601057147023	7.840199471426489	0	0	0
17.359800528573512	7.42	0	0	0
17.68	7.840199471426489	0	0	1
17.359800528573512	8.160398942852979	0	0	1
17.039601057147024	7.840199471426489	0	0	1
17.359800528573512	7.52	0	0	1
17.78	8.690598414279467	0	0	0
17.359800528573512	9.110797885705956	0	0	0
16.939601057147023	8.690598414279467	0	0	0
17.359800528573512	8.270398942852978	0	0	0
17.68	8.690598414279467	0	0	2
17.359800528573512	9.010797885705957	0	0	2
17.039601057147024	8.690598414279467	0	0	2
17.359800528573512	8.370398942852978	0	0	2
17.78	9.540997357132445	0	0	0
17.359800528573512	9.961196828558935	0	0	0
16.939601057147023	9.540997357132445	0	0	0
17.359800528573512	9.120797885705956	0	0	0
17.68	9.540997357132445	0	0	3
17.359800528573512	9.861196828558935	0	0	3
17.039601057147024	9.540997357132445	0	0	3
17.359800528573512	9.220797885705956	0	0	3
17.78	10.391396299985425	0	0	0
17.359800528573512	10.811595771411914	0	0	0
16.939601057147023	10.391396299985425	0	0	0
17.359800528573512	9.971196828558936	0	0	0
17.68	10.391396299985425	0	0	4
17.359800528573512	10.711595771411915	0	0	4
17.039601057147024	10.391396299985425	0	0	4
17.359800528573512	10.071196828558936	0	0	4
17.78	11.241795242838403	0	0	0
17.359800528573512	11.661994714264893	0	0	0
16.939601057147023	11.241795242838403	0	0	0
17.359800528573512	10.821595771411914	0	0	0
17.68	11.241795242838403	0	0	5
17.359800528573512	11.561994714264893	0	0	5
17.039601057147024	11.241795242838403	0	0	5
17.359800528573512	10.921595771411914	0	0	5
17.78	12.092194185691381	0	0	0
17.359800528573512	12.51239365711787	0	0	0
16.939601057147023	12.092194185691381	0	0	0
17.359800528573512	11.671994714264892	0	0	0
17.68	12.092194185691381	0	0	6
17.359800528573512	12.412393657117871	0	0	6
17.039601057147024	12.092194185691381	0	0	6
17.359800528573512	11.771994714264892	0	0	6
17.78	12.94259312854436	0	0	0
17.359800528573512	13.362792599970849	0	0	0
16.939601057147023	12.94259312854436	0	0	0
17.359800528573512	12.52239365711787	0	0	0
17.68	12.94259312854436	0	0	7
17.359800528573512	13.26279259997085	0	0	7
17.039601057147024	12.94259312854436	0	0	7
17.359800528573512	12.62239365711787	0	0	7
17.78	13.79299207139734	0	0	0
17.359800528573512	14.213191542823829	0	0	0
16.939601057147023	13.79299207139734	0	0	0
17.359800528573512	13.37279259997085	0	0	0
17.68	13.79299207139734	0	0	8
17.359800528573512	14.113191542823829	0	0	8
17.039601057147024	13.79299207139734	0	0	8
17.359800528573512	13.47279259997085	0	0	8
17.78	14.643391014250318	0	0	0
17.359800528573512	15.063590485676807	0	0	0
16.939601057147023	14.643391014250318	0	0	0
17.359800528573512	14.223191542823828	0	0	0
17.68	14.643391014250318	0	0	9
17.359800528573512	14.963590485676807	0	0	9
17.039601057147024	14.643391014250318	0	0	9
17.359800528573512	14.323191542823828	0	0	9
17.78	15.493789957103296	0	0	0
17.359800528573512	15.913989428529785	0	0	0
16.939601057147023	15.493789957103296	0	0	0
17.359800528573512	15.073590485676807	0	0	0
17.68	15.493789957103296	0	0	10
17.359800528573512	15.813989428529785	0	0	10
17.039601057147024	15.493789957103296	0	0	10
17.359800528573512	15.173590485676806	0	0	10
17.78	16.344188899956276	0	0	0
17.359800528573512	16.764388371382765	0	0	0
16.939601057147023	16.344188899956276	0	0	0
17.359800528573512	15.923989428529786	0	0	0
17.68	16.344188899956276	0	0	11
17.359800528573512	16.664388371382763	0	0	11
17.039601057147024	16.344188899956276	0	0	11
17.359800528573512	16.023989428529788	0	0	11
17.78	17.194587842809252	0	0	0
17.359800528573512	17.61478731423574	0	0	0
16.939601057147023	17.194587842809252	0	0	0
17.359800528573512	16.774388371382763	0	0	0
17.68	17.194587842809252	0	0	12
17.359800528573512	17.51478731423574	0	0	12
17.039601057147024	17.194587842809252	0	0	12
17.359800528573512	16.874388371382764	0	0	12
17.78	18.044986785662232	0	0	0
17.359800528573512	18.46518625708872	0	0	0
16.939601057147023	18.044986785662232	0	0	0
17.359800528573512	17.624787314235743	0	0	0
17.68	18.044986785662232	0	0	13
17.359800528573512	18.36518625708872	0	0	13
17.039601057147024	18.044986785662232	0	0	13
17.359800528573512	17.724787314235744	0	0	13
17.78	18.895385728515212	0	0	0
17.359800528573512	19.3155851999417	0	0	0
16.939601057147023	18.895385728515212	0	0	0
17.359800528573512	18.475186257088723	0	0	0
17.68	18.895385728515212	0	0	14
17.359800528573512	19.2155851999417	0	0	14
17.039601057147024	18.895385728515212	0	0	14
17.359800528573512	18.575186257088724	0	0	14
17.78	19.745784671368188	0	0	0
17.359800528573512	20.165984142794677	0	0	0
16.939601057147023	19.745784671368188	0	0	0
17.359800528573512	19.3255851999417	0	0	0
17.68	19.745784671368188	0	0	15
17.359800528573512	20.065984142794676	0	0	15
17.039601057147024	19.745784671368188	0	0	15
17.359800528573512	19.4255851999417	0	0	15
17.78	20.596183614221168	0	0	0
17.359800528573512	21.016383085647657	0	0	0
16.939601057147023	20.596183614221168	0	0	0
17.359800528573512	20.17598414279468	0	0	0
17.68	20.596183614221168	0	0	16
17.359800528573512	20.916383085647656	0	0	16
17.039601057147024	20.596183614221168	0	0	16
17.359800528573512	20.27598414279468	0	0	16
17.78	21.446582557074148	0	0	0
17.359800528573512	21.866782028500637	0	0	0
16.939601057147023	21.446582557074148	0	0	0
17.359800528573512	21.02638308564766	0	0	0
17.68	21.446582557074148	0	0	17
17.359800528573512	21.766782028500636	0	0	17
17.039601057147024	21.446582557074148	0	0	17
17.359800528573512	21.12638308564766	0	0	17
17.78	22.296981499927124	0	0	0
17.359800528573512	22.717180971353613	0	0	0
16.939601057147023	22.296981499927124	0	0	0
17.359800528573512	21.876782028500635	0	0	0
17.68	22.296981499927124	0	0	18
17.359800528573512	22.617180971353612	0	0	18
17.039601057147024	22.296981499927124	0	0	18
17.359800528573512	21.976782028500637	0	0	18
17.78	23.1473804427801	0	0	0
17.359800528573512	23.56757991420659	0	0	0
16.939601057147023	23.1473804427801	0	0	0
17.359800528573512	22.72718097135361	0	0	0
17.68	23.1473804427801	0	0	19
17.359800528573512	23.46757991420659	0	0	19
17.039601057147024	23.1473804427801	0	0	19
17.359800528573512	22.827180971353613	0	0	19
17.78	23.99777938563308	0	0	0
17.359800528573512	24.41797885705957	0	0	0
16.939601057147023	23.99777938563308	0	0	0
17.359800528573512	23.57757991420659	0	0	0
17.68	23.99777938563308	0	0	20
17.359800528573512	24.31797885705957	0	0	20
17.039601057147024	23.99777938563308	0	0	20
17.359800528573512	23.677579914206593	0	0	20
17.78	24.84817832848606	0	0	0
17.359800528573512	25.26837779991255	0	0	0
16.939601057147023	24.84817832848606	0	0	0
17.359800528573512	24.42797885705957	0	0	0
17.68	24.84817832848606	0	0	21
17.359800528573512	25.168377799912548	0	0	21
17.039601057147024	24.84817832848606	0	0	21
17.359800528573512	24.527978857059573	0	0	21
17.78	25.698577271339037	0	0	0
17.359800528573512	26.118776742765526	0	0	0
16.939601057147023	25.698577271339037	0	0	0
17.359800528573512	25.278377799912548	0	0	0
17.68	25.698577271339037	0	0	22
17.359800528573512	26.018776742765525	0	0	22
17.039601057147024	25.698577271339037	0	0	22
17.359800528573512	25.37837779991255	0	0	22
17.78	26.548976214192017	0	0	0
17.359800528573512	26.969175685618506	0	0	0
16.939601057147023	26.548976214192017	0	0	0
17.359800528573512	26.128776742765528	0	0	0
17.68	26.548976214192017	0	0	23
17.359800528573512	26.869175685618504	0	0	23
17.039601057147024	26.548976214192017	0	0	23
17.359800528573512	26.22877674276553	0	0	23
17.78	27.399375157044997	0	0	0
17.359800528573512	27.819574628471486	0	0	0
16.939601057147023	27.399375157044997	0	0	0
17.359800528573512	26.979175685618507	0	0	0
17.68	27.399375157044997	0	0	24
17.359800528573512	27.719574628471484	0	0	24
17.039601057147024	27.399375157044997	0	0	24
17.359800528573512	27.07917568561851	0	0	24
17.78	28.249774099897976	0	0	0
17.359800528573512	28.669973571324466	0	0	0
16.939601057147023	28.249774099897976	0	0	0
17.359800528573512	27.829574628471487	0	0	0
17.68	28.249774099897976	0	0	25
17.359800528573512	28.569973571324464	0	0	25
17.039601057147024	28.249774099897976	0	0	25
17.359800528573512	27.92957462847149	0	0	25
17.78	29.100173042750956	0	0	0
17.359800528573512	29.520372514177446	0	0	0
16.939601057147023	29.100173042750956	0	0	0
17.359800528573512	28.679973571324467	0	0	0
17.68	29.100173042750956	0	0	26
17.359800528573512	29.420372514177444	0	0	26
17.039601057147024	29.100173042750956	0	0	26
17.359800528573512	28.77997357132447	0	0	26
17.78	29.950571985603933	0	0	0
17.359800528573512	30.370771457030422	0	0	0
16.939601057147023	29.950571985603933	0	0	0
17.359800528573512	29.530372514177444	0	0	0
17.68	29.950571985603933	0	0	27
17.359800528573512	30.27077145703042	0	0	27
17.039601057147024	29.950571985603933	0	0	27
17.359800528573512	29.630372514177445	0	0	27
17.78	30.80097092845691	0	0	0
17.359800528573512	31.2211703998834	0	0	0
16.939601057147023	30.80097092845691	0	0	0
17.359800528573512	30.38077145703042	0	0	0
17.68	30.80097092845691	0	0	28
17.359800528573512	31.121170399883397	0	0	28
17.039601057147024	30.80097092845691	0	0	28
17.359800528573512	30.48077145703042	0	0	28
17.78	31.65136987130989	0	0	0
17.359800528573512	32.07156934273638	0	0	0
16.939601057147023	31.65136987130989	0	0	0
17.359800528573512	31.2311703998834	0	0	0
17.68	31.65136987130989	0	0	29
17.359800528573512	31.971569342736377	0	0	29
17.039601057147024	31.65136987130989	0	0	29
17.359800528573512	31.3311703998834	0	0	29
17.78	32.50176881416287	0	0	0
17.359800528573512	32.921968285589365	0	0	0
16.939601057147023	32.50176881416287	0	0	0
17.359800528573512	32.08156934273638	0	0	0
17.68	32.50176881416287	0	0	30
17.359800528573512	32.821968285589364	0	0	30
17.039601057147024	32.50176881416287	0	0	30
17.359800528573512	32.18156934273638	0	0	30
17.78	33.35216775701585	0	0	0
17.359800528573512	33.77236722844234	0	0	0
16.939601057147023	33.35216775701585	0	0	0
17.359800528573512	32.931968285589356	0	0	0
17.68	33.35216775701585	0	0	31
17.359800528573512	33.67236722844234	0	0	31
17.039601057147024	33.35216775701585	0	0	31
17.359800528573512	33.03196828558936	0	0	31
17.78	34.202566699868825	0	0	0
17.359800528573512	34.62276617129532	0	0	0
16.939601057147023	34.202566699868825	0	0	0
17.359800528573512	33.78236722844233	0	0	0
17.68	34.202566699868825	0	0	32
17.359800528573512	34.522766171295316	0	0	32
17.039601057147024	34.202566699868825	0	0	32
17.359800528573512	33.882367228442334	0	0	32
17.78	35.05296564272181	0	0	0
17.359800528573512	35.4731651141483	0	0	0
16.939601057147023	35.05296564272181	0	0	0
17.359800528573512	34.632766171295316	0	0	0
17.68	35.05296564272181	0	0	33
17.359800528573512	35.3731651141483	0	0	33
17.039601057147024	35.05296564272181	0	0	33
17.359800528573512	34.73276617129532	0	0	33
17.78	35.903364585574785	0	0	0
17.359800528573512	36.32356405700128	0	0	0
16.939601057147023	35.903364585574785	0	0	0
17.359800528573512	35.48316511414829	0	0	0
17.68	35.903364585574785	0	0	34
17.359800528573512	36.223564057001276	0	0	34
17.039601057147024	35.903364585574785	0	0	34
17.359800528573512	35.583165114148294	0	0	34
17.78	36.75376352842776	0	0	0
17.359800528573512	37.173962999854254	0	0	0
16.939601057147023	36.75376352842776	0	0	0
17.359800528573512	36.33356405700127	0	0	0
17.68	36.75376352842776	0	0	35
17.359800528573512	37.07396299985425	0	0	35
17.039601057147024	36.75376352842776	0	0	35
17.359800528573512	36.43356405700127	0	0	35
17.78	37.60416247128074	0	0	0
17.359800528573512	38.02436194270723	0	0	0
16.939601057147023	37.60416247128074	0	0	0
17.359800528573512	37.183962999854245	0	0	0
17.68	37.60416247128074	0	0	36
17.359800528573512	37.92436194270723	0	0	36
17.039601057147024	37.60416247128074	0	0	36
17.359800528573512	37.283962999854246	0	0	36
17.78	38.45456141413372	0	0	0
17.359800528573512	38.874760885560214	0	0	0
16.939601057147023	38.45456141413372	0	0	0
17.359800528573512	38.03436194270723	0	0	0
17.68	38.45456141413372	0	0	37
17.359800528573512	38.77476088556021	0	0	37
17.039601057147024	38.45456141413372	0	0	37
17.359800528573512	38.13436194270723	0	0	37
17.78	39.3049603569867	0	0	0
17.359800528573512	39.72515982841319	0	0	0
16.939601057147023	39.3049603569867	0	0	0
17.359800528573512	38.884760885560205	0	0	0
17.68	39.3049603569867	0	0	38
17.359800528573512	39.62515982841319	0	0	38
17.039601057147024	39.3049603569867	0	0	38
17.359800528573512	38.984760885560206	0	0	38
17.78	40.155359299839674	0	0	0
17.359800528573512	40.57555877126617	0	0	0
16.939601057147023	40.155359299839674	0	0	0
17.359800528573512	39.73515982841318	0	0	0
17.68	40.155359299839674	0	0	39
17.359800528573512	40.475558771266165	0	0	39
17.039601057147024	40.155359299839674	0	0	39
17.359800528573512	39.83515982841318	0	0	39
17.78	41.00575824269266	0	0	0
17.359800528573512	41.42595771411915	0	0	0
16.939601057147023	41.00575824269266	0	0	0
17.359800528573512	40.585558771266165	0	0	0
17.68	41.00575824269266	0	0	40
17.359800528573512	41.32595771411915	0	0	40
17.039601057147024	41.00575824269266	0	0	40
17.359800528573512	40.685558771266166	0	0	40
17.78	41.856157185545634	0	0	0
17.359800528573512	42.276356656972126	0	0	0
16.939601057147023	41.856157185545634	0	0	0
17.359800528573512	41.43595771411914	0	0	0
17.68	41.856157185545634	0	0	41
17.359800528573512	42.176356656972125	0	0	41
17.039601057147024	41.856157185545634	0	0	41
17.359800528573512	41.53595771411914	0	0	41
17.78	42.70655612839861	0	0	0
17.359800528573512	43.1267555998251	0	0	0
16.939601057147023	42.70655612839861	0	0	0
17.359800528573512	42.28635665697212	0	0	0
17.68	42.70655612839861	0	0	42
17.359800528573512	43.0267555998251	0	0	42
17.039601057147024	42.70655612839861	0	0	42
17.359800528573512	42.38635665697212	0	0	42
17.78	43.556955071251586	0	0	0
17.359800528573512	43.97715454267808	0	0	0
16.939601057147023	43.556955071251586	0	0	0
17.359800528573512	43.136755599825094	0	0	0
17.68	43.556955071251586	0	0	43
17.359800528573512	43.87715454267808	0	0	43
17.039601057147024	43.556955071251586	0	0	43
17.359800528573512	43.236755599825095	0	0	43
17.78	44.40735401410457	0	0	0
17.359800528573512	44.82755348553106	0	0	0
16.939601057147023	44.40735401410457	0	0	0
17.359800528573512	43.98715454267808	0	0	0
17.68	44.40735401410457	0	0	44
17.359800528573512	44.72755348553106	0	0	44
17.039601057147024	44.40735401410457	0	0	44
17.359800528573512	44.08715454267808	0	0	44
17.78	45.257752956957546	0	0	0
17.359800528573512	45.67795242838404	0	0	0
16.939601057147023	45.257752956957546	0	0	0