[Format] = 4.0
[Frequency] = 100000.0
[Precision] = 1e-09
[MinAngle] = 30
[DoSmartMesh] = 1
[Depth] = 18.9
[LengthUnits] = millimeters
[ProblemType] = planar
[Coordinates] = cartesian
[ACSolver] = 0
[PrevType] = 0
[PrevSoln] = ''
[Comment] = "Add comments here."
[PointProps] = 0
[BdryProps] = 0
[BlockProps] = 3
  <BeginBlock>
    <BlockName> = "none"
    <Mu_x> = 19000.0
    <Mu_y> = 19000.0
    <H_c> = 0
    <H_cAngle> = 0
    <J_re> = 0
    <J_im> = 0
    <Sigma> = 2e-06
    <d_lam> = 0
    <Phi_h> = 0
    <Phi_hx> = 0
    <Phi_hy> = 0
    <LamType> = 0
    <LamFill> = 1
    <NStrands> = 0
    <WireD> = 0
    <BHPoints> = 0
  <EndBlock>
  <BeginBlock>
    <BlockName> = "Air"
    <Mu_x> = 1
    <Mu_y> = 1
    <H_c> = 0
    <H_cAngle> = 0
    <J_re> = 0
    <J_im> = 0
    <Sigma> = 0.0
    <d_lam> = 0
    <Phi_h> = 0
    <Phi_hx> = 0
    <Phi_hy> = 0
    <LamType> = 0
    <LamFill> = 1
    <NStrands> = 0
    <WireD> = 0
    <BHPoints> = 0
  <EndBlock>
  <BeginBlock>
    <BlockName> = "Copper_primary"
    <Mu_x> = 1
    <Mu_y> = 1
    <H_c> = 0
    <H_cAngle> = 0
    <J_re> = 0
    <J_im> = 0
    <Sigma> = 58.0
    <d_lam> = 0
    <Phi_h> = 0
    <Phi_hx> = 0
    <Phi_hy> = 0
    <LamType> = 3
    <LamFill> = 1
    <NStrands> = 1
    <WireD> = 1.1894154827269934
    <BHPoints> = 0
  <EndBlock>
[CircuitProps] = 1
  <BeginCircuit>
    <CircuitName> = Primary
    <TotalAmps_re> = 5.0
    <TotalAmps_im> = 0
    <CircuitType> = 1
  <EndCircuit>
[NumPoints] = 140
0	0	0	0
0	55.2	0	0
54.5	55.2	0	0
54.5	0	0	0
6.65	7.4	0	0
17.8	7.4	0	0
17.8	27.116104	0	0
36.7	27.116104	0	0
36.7	7.4	0	0
47.85	7.4	0	0
47.85	47.8	0	0
36.7	47.8	0	0
36.7	28.083896	0	0
17.8	28.083896	0	0
17.8	47.8	0	0
6.65	47.8	0	0
-81.75	-82.80000000000001	0	0
136.25	-82.80000000000001	0	0
136.25	138.0	0	0
-81.75	138.0	0	0
17.78	18.015199999999997	0	0
17.184800000000003	18.610399999999995	0	0
16.589600000000004	18.015199999999997	0	0
17.184800000000003	17.419999999999998	0	0
37.9104	18.015199999999997	0	0
37.315200000000004	18.610399999999995	0	0
36.720000000000006	18.015199999999997	0	0
37.315200000000004	17.419999999999998	0	0
17.78	19.215599999999995	0	0
17.184800000000003	19.810799999999993	0	0
16.589600000000004	19.215599999999995	0	0
17.184800000000003	18.620399999999997	0	0
37.9104	19.2156	0	0
37.315200000000004	19.810799999999997	0	0
36.720000000000006	19.2156	0	0
37.315200000000004	18.6204	0	0
17.78	20.415999999999997	0	0
17.184800000000003	21.011199999999995	0	0
16.589600000000004	20.415999999999997	0	0
17.184800000000003	19.8208	0	0
37.9104	20.415999999999997	0	0
37.315200000000004	21.011199999999995	0	0
36.720000000000006	20.415999999999997	0	0
37.315200000000004	19.8208	0	0
17.78	21.616399999999995	0	0
17.184800000000003	22.211599999999994	0	0
16.589600000000004	21.616399999999995	0	0
17.184800000000003	21.021199999999997	0	0
37.9104	21.6164	0	0
37.315200000000004	22.211599999999997	0	0
36.720000000000006	21.6164	0	0
37.315200000000004	21.0212	0	0
17.78	22.816799999999997	0	0
17.184800000000003	23.411999999999995	0	0
16.589600000000004	22.816799999999997	0	0
17.184800000000003	22.2216	0	0
37.9104	22.816799999999994	0	0
37.315200000000004	23.411999999999992	0	0
36.720000000000006	22.816799999999994	0	0
37.315200000000004	22.221599999999995	0	0
17.78	24.017199999999995	0	0
17.184800000000003	24.612399999999994	0	0
16.589600000000004	24.017199999999995	0	0
17.184800000000003	23.421999999999997	0	0
37.9104	24.017199999999995	0	0
37.315200000000004	24.612399999999994	0	0
36.720000000000006	24.017199999999995	0	0
37.315200000000004	23.421999999999997	0	0
17.78	25.217599999999997	0	0
17.184800000000003	25.812799999999996	0	0
16.589600000000004	25.217599999999997	0	0
17.184800000000003	24.6224	0	0
37.9104	25.217599999999994	0	0
37.315200000000004	25.812799999999992	0	0
36.720000000000006	25.217599999999994	0	0
37.315200000000004	24.622399999999995	0	0
17.78	26.417999999999996	0	0
17.184800000000003	27.013199999999994	0	0
16.589600000000004	26.417999999999996	0	0
17.184800000000003	25.822799999999997	0	0
37.9104	26.417999999999996	0	0
37.315200000000004	27.013199999999994	0	0
36.720000000000006	26.417999999999996	0	0
37.315200000000004	25.822799999999997	0	0
17.78	27.618399999999994	0	0
17.184800000000003	28.213599999999992	0	0
16.589600000000004	27.618399999999994	0	0
17.184800000000003	27.023199999999996	0	0
37.9104	27.618399999999994	0	0
37.315200000000004	28.213599999999992	0	0
36.720000000000006	27.618399999999994	0	0
37.315200000000004	27.023199999999996	0	0
17.78	28.818799999999996	0	0
17.184800000000003	29.413999999999994	0	0
16.589600000000004	28.818799999999996	0	0
17.184800000000003	28.223599999999998	0	0
37.9104	28.818799999999996	0	0
37.315200000000004	29.413999999999994	0	0
36.720000000000006	28.818799999999996	0	0
37.315200000000004	28.223599999999998	0	0
17.78	30.019199999999998	0	0
17.184800000000003	30.614399999999996	0	0
16.589600000000004	30.019199999999998	0	0
17.184800000000003	29.424	0	0
37.9104	30.019199999999998	0	0
37.315200000000004	30.614399999999996	0	0
36.720000000000006	30.019199999999998	0	0
37.315200000000004	29.424	0	0
17.78	31.219599999999996	0	0
17.184800000000003	31.814799999999995	0	0
16.589600000000004	31.219599999999996	0	0
17.184800000000003	30.624399999999998	0	0
37.9104	31.219599999999993	0	0
37.315200000000004	31.81479999999999	0	0
36.720000000000006	31.219599999999993	0	0
37.315200000000004	30.624399999999994	0	0
17.78	32.419999999999995	0	0
17.184800000000003	33.01519999999999	0	0
16.589600000000004	32.419999999999995	0	0
17.184800000000003	31.824799999999996	0	0
37.9104	32.419999999999995	0	0
37.315200000000004	33.01519999999999	0	0
36.720000000000006	32.419999999999995	0	0
37.315200000000004	31.824799999999996	0	0
17.78	33.6204	0	0
17.184800000000003	34.215599999999995	0	0
16.589600000000004	33.6204	0	0
17.184800000000003	33.0252	0	0
37.9104	33.6204	0	0
37.315200000000004	34.215599999999995	0	0
36.720000000000006	33.6204	0	0
37.315200000000004	33.0252	0	0
17.78	34.8208	0	0
17.184800000000003	35.416	0	0
16.589600000000004	34.8208	0	0
17.184800000000003	34.2256	0	0
37.9104	34.8208	0	0
37.315200000000004	35.416	0	0
36.720000000000006	34.8208	0	0
37.315200000000004	34.2256	0	0
[NumSegments] = 20
0	1	-1	0	0	0
1	2	-1	0	0	0
2	3	-1	0	0	0
3	0	-1	0	0	0
4	5	-1	0	0	0
5	6	-1	0	0	0
6	7	-1	0	0	0
7	8	-1	0	0	0
8	9	-1	0	0	0
9	10	-1	0	0	0
10	11	-1	0	0	0
11	12	-1	0	0	0
12	13	-1	0	0	0
13	14	-1	0	0	0
14	15	-1	0	0	0
15	4	-1	0	0	0
16	17	-1	0	0	0
17	18	-1	0	0	0
18	19	-1	0	0	0
19	16	-1	0	0	0
[NumArcSegments] = 120
20	21	90	1	0	0	0	1
21	22	90	1	0	0	0	1
22	23	90	1	0	0	0	1
23	20	90	1	0	0	0	1
24	25	90	1	0	0	0	1
25	26	90	1	0	0	0	1
26	27	90	1	0	0	0	1
27	24	90	1	0	0	0	1
28	29	90	1	0	0	0	1
29	30	90	1	0	0	0	1
30	31	90	1	0	0	0	1
31	28	90	1	0	0	0	1
32	33	90	1	0	0	0	1
33	34	90	1	0	0	0	1
34	35	90	1	0	0	0	1
35	32	90	1	0	0	0	1
36	37	90	1	0	0	0	1
37	38	90	1	0	0	0	1
38	39	90	1	0	0	0	1
39	36	90	1	0	0	0	1
40	41	90	1	0	0	0	1
41	42	90	1	0	0	0	1
42	43	90	1	0	0	0	1
43	40	90	1	0	0	0	1
44	45	90	1	0	0	0	1
45	46	90	1	0	0	0	1
46	47	90	1	0	0	0	1
47	44	90	1	0	0	0	1
48	49	90	1	0	0	0	1
49	50	90	1	0	0	0	1
50	51	90	1	0	0	0	1
51	48	90	1	0	0	0	1
52	53	90	1	0	0	0	1
53	54	90	1	0	0	0	1
54	55	90	1	0	0	0	1
55	52	90	1	0	0	0	1
56	57	90	1	0	0	0	1
57	58	90	1	0	0	0	1
58	59	90	1	0	0	0	1
59	56	90	1	0	0	0	1
60	61	90	1	0	0	0	1
61	62	90	1	0	0	0	1
62	63	90	1	0	0	0	1
63	60	90	1	0	0	0	1
64	65	90	1	0	0	0	1
65	66	90	1	0	0	0	1
66	67	90	1	0	0	0	1
67	64	90	1	0	0	0	1
68	69	90	1	0	0	0	1
69	70	90	1	0	0	0	1
70	71	90	1	0	0	0	1
71	68	90	1	0	0	0	1
72	73	90	1	0	0	0	1
73	74	90	1	0	0	0	1
74	75	90	1	0	0	0	1
75	72	90	1	0	0	0	1
76	77	90	1	0	0	0	1
77	78	90	1	0	0	0	1
78	79	90	1	0	0	0	1
79	76	90	1	0	0	0	1
80	81	90	1	0	0	0	1
81	82	90	1	0	0	0	1
82	83	90	1	0	0	0	1
83	80	90	1	0	0	0	1
84	85	90	1	0	0	0	1
85	86	90	1	0	0	0	1
86	87	90	1	0	0	0	1
87	84	90	1	0	0	0	1
88	89	90	1	0	0	0	1
89	90	90	1	0	0	0	1
90	91	90	1	0	0	0	1
91	88	90	1	0	0	0	1
92	93	90	1	0	0	0	1
93	94	90	1	0	0	0	1
94	95	90	1	0	0	0	1
95	92	90	1	0	0	0	1
96	97	90	1	0	0	0	1
97	98	90	1	0	0	0	1
98	99	90	1	0	0	0	1
99	96	90	1	0	0	0	1
100	101	90	1	0	0	0	1
101	102	90	1	0	0	0	1
102	103	90	1	0	0	0	1
103	100	90	1	0	0	0	1
104	105	90	1	0	0	0	1
105	106	90	1	0	0	0	1
106	107	90	1	0	0	0	1
107	104	90	1	0	0	0	1
108	109	90	1	0	0	0	1
109	110	90	1	0	0	0	1
110	111	90	1	0	0	0	1
111	108	90	1	0	0	0	1
112	113	90	1	0	0	0	1
113	114	90	1	0	0	0	1
114	115	90	1	0	0	0	1
115	112	90	1	0	0	0	1
116	117	90	1	0	0	0	1
117	118	90	1	0	0	0	1
118	119	90	1	0	0	0	1
119	116	90	1	0	0	0	1
120	121	90	1	0	0	0	1
121	122	90	1	0	0	0	1
122	123	90	1	0	0	0	1
123	120	90	1	0	0	0	1
124	125	90	1	0	0	0	1
125	126	90	1	0	0	0	1
126	127	90	1	0	0	0	1
127	124	90	1	0	0	0	1
128	129	90	1	0	0	0	1
129	130	90	1	0	0	0	1
130	131	90	1	0	0	0	1
131	128	90	1	0	0	0	1
132	133	90	1	0	0	0	1
133	134	90	1	0	0	0	1
134	135	90	1	0	0	0	1
135	132	90	1	0	0	0	1
136	137	90	1	0	0	0	1
137	138	90	1	0	0	0	1
138	139	90	1	0	0	0	1
139	136	90	1	0	0	0	1
[NumHoles] = 0
[NumBlockLabels] = 33
27.25	41.400000000000006	1	-1	0	0	0	0	0
27.25	82.80000000000001	2	-1	0	0	0	0	0
17.184800000000003	18.015199999999997	3	-1	1	0	0	1	1
37.315200000000004	18.015199999999997	3	-1	1	0	0	-1	1
17.184800000000003	19.215599999999995	3	-1	1	0	0	1	1
37.315200000000004	19.2156	3	-1	1	0	0	-1	1
17.184800000000003	20.415999999999997	3	-1	1	0	0	1	1
37.315200000000004	20.415999999999997	3	-1	1	0	0	-1	1
17.184800000000003	21.616399999999995	3	-1	1	0	0	1	1
37.315200000000004	21.6164	3	-1	1	0	0	-1	1
17.184800000000003	22.816799999999997	3	-1	1	0	0	1	1
37.315200000000004	22.816799999999994	3	-1	1	0	0	-1	1
17.184800000000003	24.017199999999995	3	-1	1	0	0	1	1
37.315200000000004	24.017199999999995	3	-1	1	0	0	-1	1
17.184800000000003	25.217599999999997	3	-1	1	0	0	1	1
37.315200000000004	25.217599999999994	3	-1	1	0	0	-1	1
17.184800000000003	26.417999999999996	3	-1	1	0	0	1	1
37.315200000000004	26.417999999999996	3	-1	1	0	0	-1	1
17.184800000000003	27.618399999999994	3	-1	1	0	0	1	1
37.315200000000004	27.618399999999994	3	-1	1	0	0	-1	1
17.184800000000003	28.818799999999996	3	-1	1	0	0	1	1
37.315200000000004	28.818799999999996	3	-1	1	0	0	-1	1
17.184800000000003	30.019199999999998	3	-1	1	0	0	1	1
37.315200000000004	30.019199999999998	3	-1	1	0	0	-1	1
17.184800000000003	31.219599999999996	3	-1	1	0	0	1	1
37.315200000000004	31.219599999999993	3	-1	1	0	0	-1	1
17.184800000000003	32.419999999999995	3	-1	1	0	0	1	1
37.315200000000004	32.419999999999995	3	-1	1	0	0	-1	1
17.184800000000003	33.6204	3	-1	1	0	0	1	1
37.315200000000004	33.6204	3	-1	1	0	0	-1	1
17.184800000000003	34.8208	3	-1	1	0	0	1	1
37.315200000000004	34.8208	3	-1	1	0	0	-1	1
17.785	17.415	2	-1	0	0	0	0	0
